Examples/InverterModels/PVSystem2/InvControl2/MonitoredVoltage/Mon_voltage_MAX_Mix_avg_sec8_VLN_Node.Txt

LINE-GROUND and LINE-LINE VOLTAGES BY BUS & NODE

Bus  Node    VLN (kV)   Angle      pu     Base kV    Node-Node   VLL (kV)  Angle      pu

A .. 1       8.4814 /_    6.9    1.0645    13.800        1-2     14.692 /_   36.9    1.0647
   - 2       8.4871 /_ -113.1    1.0652    13.800        2-3     14.694 /_  -83.0    1.0648
   - 3       8.4831 /_  127.0    1.0647    13.800        3-1     14.697 /_  156.9     1.065
B .. 1       8.6099 /_    9.2    1.0806    13.800        1-2     14.862 /_   39.0    1.0769
   - 2       8.5419 /_ -110.9    1.0721    13.800        2-3     14.766 /_  -80.8      1.07
   - 3       8.5294 /_  129.3    1.0705    13.800        3-1     14.854 /_  159.4    1.0764
C .. 1      0.30033 /_    9.2    1.0837     0.480        1-2    0.51841 /_   39.0      1.08
   - 2      0.29797 /_ -110.9    1.0752     0.480        2-3    0.51508 /_  -80.8    1.0731
   - 3      0.29754 /_  129.4    1.0736     0.480        3-1    0.51815 /_  159.5    1.0795
